H4B:B:760
     RDKit          3D

 17 18  0  0  0  0  0  0  0  0999 V2000
   14.2680    3.2130   48.4030 N   0  0  0  0  0  0  0  0  0  0  0  0
   14.3520    2.7010   49.6630 C   0  0  0  0  0  0  0  0  0  0  0  0
   13.3280    1.9830   50.1740 N   0  0  0  0  0  0  0  0  0  0  0  0
   15.4700    2.9110   50.4130 N   0  0  0  0  0  0  0  0  0  0  0  0
   16.5170    3.6420   49.9280 C   0  0  0  0  0  0  0  0  0  0  0  0
   17.5350    3.8330   50.6400 O   0  0  0  0  0  0  0  0  0  0  0  0
   16.4520    4.1780   48.6470 C   0  0  0  0  0  0  0  0  0  0  0  0
   15.2950    3.9520   47.8870 C   0  0  0  0  0  0  0  0  0  0  0  0
   17.4800    4.9380   48.1330 N   0  0  0  0  0  0  0  0  0  0  0  0
   15.1940    4.4770   46.6190 N   0  0  0  0  0  0  0  0  0  0  0  0
   17.1750    5.9090   47.0620 C   0  0  2  0  0  0  0  0  0  0  0  0
   16.2830    5.2640   45.9810 C   0  0  0  0  0  0  0  0  0  0  0  0
   18.4020    6.6270   46.4480 C   0  0  1  0  0  0  0  0  0  0  0  0
   19.4250    5.7240   45.9910 O   0  0  0  0  0  0  0  0  0  0  0  0
   17.9860    7.5820   45.3250 C   0  0  2  0  0  0  0  0  0  0  0  0
   19.1980    8.2350   44.6700 C   0  0  0  0  0  0  0  0  0  0  0  0
   17.0940    8.5720   45.8520 O   0  0  0  0  0  0  0  0  0  0  0  0
  2  1  2  0
  3  2  1  0
  4  2  1  0
  5  4  1  0
  6  5  2  0
  7  5  1  0
  8  1  1  0
  8  7  2  0
  9  7  1  0
 10  8  1  0
 11  9  1  0
 12 10  1  0
 11 12  1  6
 13 11  1  0
 13 14  1  6
 15 13  1  0
 15 16  1  1
 17 15  1  0
M  END
