S20:A:800
     RDKit          3D

 27 29  0  0  0  0  0  0  0  0999 V2000
    7.8990    2.9280   24.9580 C   0  0  0  0  0  0  0  0  0  0  0  0
    6.5850    2.8020   25.4080 C   0  0  0  0  0  0  0  0  0  0  0  0
    5.9940    1.5340   25.5420 C   0  0  0  0  0  0  0  0  0  0  0  0
    6.6960    0.3680   25.2330 C   0  0  0  0  0  0  0  0  0  0  0  0
    8.0100    0.4860   24.7780 C   0  0  0  0  0  0  0  0  0  0  0  0
    8.6130    1.7560   24.6430 C   0  0  0  0  0  0  0  0  0  0  0  0
    3.2050    4.8090   27.5850 N   0  0  0  0  0  0  0  0  0  0  0  0
    1.8680    4.6980   27.7700 C   0  0  0  0  0  0  0  0  0  0  0  0
    1.1300    5.8280   27.8770 N   0  0  0  0  0  0  0  0  0  0  0  0
    1.2570    3.4390   27.8500 C   0  0  0  0  0  0  0  0  0  0  0  0
    2.0360    2.2840   27.7380 C   0  0  0  0  0  0  0  0  0  0  0  0
    3.4180    2.4260   27.5520 C   0  0  0  0  0  0  0  0  0  0  0  0
    3.9880    3.7090   27.4760 C   0  0  0  0  0  0  0  0  0  0  0  0
    1.3860    0.9200   27.8190 C   0  0  0  0  0  0  0  0  0  0  0  0
    5.4770    3.9100   27.2720 C   0  0  0  0  0  0  0  0  0  0  0  0
    5.7990    4.0340   25.7780 C   0  0  0  0  0  0  0  0  0  0  0  0
   13.1610   -0.0140   23.8270 N   0  0  0  0  0  0  0  0  0  0  0  0
   14.3930    0.0610   23.2950 C   0  0  0  0  0  0  0  0  0  0  0  0
   15.3730   -0.7150   23.8010 N   0  0  0  0  0  0  0  0  0  0  0  0
   14.6350    0.9160   22.2240 C   0  0  0  0  0  0  0  0  0  0  0  0
   13.6070    1.7000   21.7220 C   0  0  0  0  0  0  0  0  0  0  0  0
   12.3230    1.6110   22.2800 C   0  0  0  0  0  0  0  0  0  0  0  0
   12.1190    0.7310   23.3660 C   0  0  0  0  0  0  0  0  0  0  0  0
   13.9020    2.6020   20.5420 C   0  0  0  0  0  0  0  0  0  0  0  0
   10.7690    0.5580   24.0650 C   0  0  0  0  0  0  0  0  0  0  0  0
   10.0090    1.8820   24.1520 C   0  0  2  0  0  0  0  0  0  0  0  0
   10.7240    2.7960   24.9800 O   0  0  0  0  0  0  0  0  0  0  0  0
  2  1  2  0
  3  2  1  0
  4  3  2  0
  5  4  1  0
  6  5  2  0
  6  1  1  0
  8  7  2  0
  9  8  1  0
 10  8  1  0
 11 10  2  0
 12 11  1  0
 13 12  2  0
 13  7  1  0
 14 11  1  0
 15 13  1  0
 16  2  1  0
 16 15  1  0
 18 17  2  0
 19 18  1  0
 20 18  1  0
 21 20  2  0
 22 21  1  0
 23 22  2  0
 23 17  1  0
 24 21  1  0
 25 23  1  0
 26 25  1  0
 26  6  1  0
 26 27  1  1
M  END
