H4B:B:802
     RDKit          3D

 17 18  0  0  0  0  0  0  0  0999 V2000
   14.3300    3.4740   48.5390 N   0  0  0  0  0  0  0  0  0  0  0  0
   14.4430    3.0470   49.8350 C   0  0  0  0  0  0  0  0  0  0  0  0
   13.4230    2.4410   50.4110 N   0  0  0  0  0  0  0  0  0  0  0  0
   15.5440    3.2630   50.5860 N   0  0  0  0  0  0  0  0  0  0  0  0
   16.6290    3.8770   50.0820 C   0  0  0  0  0  0  0  0  0  0  0  0
   17.6830    4.0320   50.8020 O   0  0  0  0  0  0  0  0  0  0  0  0
   16.5420    4.3510   48.7740 C   0  0  0  0  0  0  0  0  0  0  0  0
   15.3790    4.1550   48.0100 C   0  0  0  0  0  0  0  0  0  0  0  0
   17.5900    5.0320   48.2250 N   0  0  0  0  0  0  0  0  0  0  0  0
   15.3220    4.5900   46.7130 N   0  0  0  0  0  0  0  0  0  0  0  0
   17.3350    5.9510   47.1170 C   0  0  2  0  0  0  0  0  0  0  0  0
   16.4800    5.2440   46.0480 C   0  0  0  0  0  0  0  0  0  0  0  0
   18.5830    6.6280   46.5000 C   0  0  1  0  0  0  0  0  0  0  0  0
   19.4870    5.5960   46.1090 O   0  0  0  0  0  0  0  0  0  0  0  0
   18.2290    7.4860   45.2620 C   0  0  2  0  0  0  0  0  0  0  0  0
   19.4340    8.2540   44.7200 C   0  0  0  0  0  0  0  0  0  0  0  0
   17.1320    8.3940   45.5200 O   0  0  0  0  0  0  0  0  0  0  0  0
  2  1  2  0
  3  2  1  0
  4  2  1  0
  5  4  1  0
  6  5  2  0
  7  5  1  0
  8  1  1  0
  8  7  2  0
  9  7  1  0
 10  8  1  0
 11  9  1  0
 12 10  1  0
 11 12  1  6
 13 11  1  0
 13 14  1  6
 15 13  1  0
 15 16  1  1
 17 15  1  0
M  END
